data_image0
_chemical_formula_structural       SiH2
_chemical_formula_sum              "Si1 H2"
_cell_length_a       21.16708843
_cell_length_b       21.16708843
_cell_length_c       21.16708843
_cell_angle_alpha    90.0
_cell_angle_beta     90.0
_cell_angle_gamma    90.0

_space_group_name_H-M_alt    "P 1"
_space_group_IT_number       1

loop_
  _space_group_symop_operation_xyz
  'x, y, z'

loop_
  _atom_site_type_symbol
  _atom_site_label
  _atom_site_symmetry_multiplicity
  _atom_site_fract_x
  _atom_site_fract_y
  _atom_site_fract_z
  _atom_site_occupancy
  Si  Si1       1.0  0.49999992  0.49999894409649426  0.5047026224112832  1.0000
  H   H1        1.0  0.5000000400000001  0.5610455426063221  0.46851619853432114  1.0000
  H   H2        1.0  0.5000000400000001  0.4389555032963629  0.4685163190552164  1.0000
